<?xml version="1.0" encoding="UTF-8"?>

<!-- generated on Sun Apr  8 00:03:51 2018 by SUMO netconvert Version 0.25.0
<?xml version="1.0" encoding="UTF-8"?>

<configuration xmlns:xsi="http://www.w3.org/2001/XMLSchema-instance" xsi:noNamespaceSchemaLocation="http://sumo.dlr.de/xsd/netconvertConfiguration.xsd">

    <input>
        <vissim-file value="smart_cone_test_122117.inpx"/>
    </input>

    <output>
        <output-file value="MySUMOFile.net.xml"/>
    </output>

</configuration>
-->

<net version="0.25" xmlns:xsi="http://www.w3.org/2001/XMLSchema-instance" xsi:noNamespaceSchemaLocation="http://sumo.dlr.de/xsd/net_file.xsd">

    <location netOffset="7296.03,2.27" convBoundary="0.00,0.00,8046.50,4.18" origBoundary="-7296.03,-2.27,750.46,1.91" projParameter="!"/>

    <edge id=":0_0" function="internal">
        <lane id=":0_0_0" index="0" speed="13.89" length="0.10" shape="804.67,0.67 804.67,0.67"/>
        <lane id=":0_0_1" index="1" speed="13.89" length="0.10" shape="804.67,3.97 804.67,3.97"/>
    </edge>
    <edge id=":1_0" function="internal">
        <lane id=":1_0_0" index="0" speed="13.89" length="0.10" shape="1124.60,0.66 1124.60,0.66"/>
        <lane id=":1_0_1" index="1" speed="13.89" length="0.10" shape="1124.60,3.96 1124.60,3.96"/>
    </edge>
    <edge id=":10_0" function="internal">
        <lane id=":10_0_0" index="0" speed="13.89" length="0.10" shape="4003.98,0.59 4003.98,0.59"/>
        <lane id=":10_0_1" index="1" speed="13.89" length="0.10" shape="4003.98,3.89 4003.98,3.89"/>
    </edge>
    <edge id=":11_0" function="internal">
        <lane id=":11_0_0" index="0" speed="13.89" length="0.10" shape="4323.91,0.59 4323.91,0.59"/>
        <lane id=":11_0_1" index="1" speed="13.89" length="0.10" shape="4323.91,3.89 4323.91,3.89"/>
    </edge>
    <edge id=":12_0" function="internal">
        <lane id=":12_0_0" index="0" speed="13.89" length="0.10" shape="4643.84,0.58 4643.84,0.58"/>
        <lane id=":12_0_1" index="1" speed="13.89" length="0.10" shape="4643.84,3.88 4643.84,3.88"/>
    </edge>
    <edge id=":13_0" function="internal">
        <lane id=":13_0_0" index="0" speed="13.89" length="0.10" shape="4963.77,0.57 4963.77,0.57"/>
        <lane id=":13_0_1" index="1" speed="13.89" length="0.10" shape="4963.77,3.87 4963.77,3.87"/>
    </edge>
    <edge id=":14_0" function="internal">
        <lane id=":14_0_0" index="0" speed="13.89" length="0.10" shape="5283.70,0.56 5283.70,0.56"/>
        <lane id=":14_0_1" index="1" speed="13.89" length="0.10" shape="5283.70,3.86 5283.70,3.86"/>
    </edge>
    <edge id=":15_0" function="internal">
        <lane id=":15_0_0" index="0" speed="13.89" length="0.10" shape="5603.63,0.55 5603.63,0.55"/>
        <lane id=":15_0_1" index="1" speed="13.89" length="0.10" shape="5603.63,3.85 5603.63,3.85"/>
    </edge>
    <edge id=":16_0" function="internal">
        <lane id=":16_0_0" index="0" speed="13.89" length="0.10" shape="5923.56,0.55 5923.56,0.55"/>
        <lane id=":16_0_1" index="1" speed="13.89" length="0.10" shape="5923.56,3.85 5923.56,3.85"/>
    </edge>
    <edge id=":17_0" function="internal">
        <lane id=":17_0_0" index="0" speed="13.89" length="0.10" shape="6243.49,0.54 6243.49,0.54"/>
        <lane id=":17_0_1" index="1" speed="13.89" length="0.10" shape="6243.49,3.84 6243.49,3.84"/>
    </edge>
    <edge id=":18_0" function="internal">
        <lane id=":18_0_0" index="0" speed="13.89" length="0.10" shape="6563.42,0.53 6563.42,0.53"/>
        <lane id=":18_0_1" index="1" speed="13.89" length="0.10" shape="6563.42,3.83 6563.42,3.83"/>
    </edge>
    <edge id=":19_0" function="internal">
        <lane id=":19_0_0" index="0" speed="13.89" length="0.10" shape="6883.35,0.52 6883.35,0.52"/>
        <lane id=":19_0_1" index="1" speed="13.89" length="0.10" shape="6883.35,3.82 6883.35,3.82"/>
    </edge>
    <edge id=":2_0" function="internal">
        <lane id=":2_0_0" index="0" speed="13.89" length="0.10" shape="1444.53,0.66 1444.53,0.66"/>
        <lane id=":2_0_1" index="1" speed="13.89" length="0.10" shape="1444.53,3.96 1444.53,3.96"/>
    </edge>
    <edge id=":20_0" function="internal">
        <lane id=":20_0_0" index="0" speed="13.89" length="3.02" shape="7201.78,3.82 7204.78,4.18"/>
    </edge>
    <edge id=":21_0" function="internal">
        <lane id=":21_0_0" index="0" speed="13.89" length="3.88" shape="7507.08,4.17 7510.08,0.51"/>
        <lane id=":21_0_1" index="1" speed="13.89" length="3.88" shape="7507.08,4.17 7510.08,3.81"/>
    </edge>
    <edge id=":3_0" function="internal">
        <lane id=":3_0_0" index="0" speed="13.89" length="0.10" shape="1764.46,0.65 1764.46,0.65"/>
        <lane id=":3_0_1" index="1" speed="13.89" length="0.10" shape="1764.46,3.95 1764.46,3.95"/>
    </edge>
    <edge id=":4_0" function="internal">
        <lane id=":4_0_0" index="0" speed="13.89" length="0.10" shape="2084.39,0.64 2084.39,0.64"/>
        <lane id=":4_0_1" index="1" speed="13.89" length="0.10" shape="2084.39,3.94 2084.39,3.94"/>
    </edge>
    <edge id=":5_0" function="internal">
        <lane id=":5_0_0" index="0" speed="13.89" length="0.10" shape="2404.32,0.63 2404.32,0.63"/>
        <lane id=":5_0_1" index="1" speed="13.89" length="0.10" shape="2404.32,3.93 2404.32,3.93"/>
    </edge>
    <edge id=":6_0" function="internal">
        <lane id=":6_0_0" index="0" speed="13.89" length="0.10" shape="2724.25,0.62 2724.25,0.62"/>
        <lane id=":6_0_1" index="1" speed="13.89" length="0.10" shape="2724.25,3.92 2724.25,3.92"/>
    </edge>
    <edge id=":7_0" function="internal">
        <lane id=":7_0_0" index="0" speed="13.89" length="0.10" shape="3044.18,0.62 3044.18,0.62"/>
        <lane id=":7_0_1" index="1" speed="13.89" length="0.10" shape="3044.18,3.92 3044.18,3.92"/>
    </edge>
    <edge id=":8_0" function="internal">
        <lane id=":8_0_0" index="0" speed="13.89" length="0.10" shape="3364.12,0.61 3364.12,0.61"/>
        <lane id=":8_0_1" index="1" speed="13.89" length="0.10" shape="3364.12,3.91 3364.12,3.91"/>
    </edge>
    <edge id=":9_0" function="internal">
        <lane id=":9_0_0" index="0" speed="13.89" length="0.10" shape="3684.05,0.60 3684.05,0.60"/>
        <lane id=":9_0_1" index="1" speed="13.89" length="0.10" shape="3684.05,3.90 3684.05,3.90"/>
    </edge>

    <edge id="1" from="1-begin" to="0" priority="-1" type="1" spreadType="center" shape="0.00,2.34 804.17,2.32">
        <lane id="1_0" index="0" speed="13.89" length="804.67" shape="-0.00,0.69 804.67,0.67"/>
        <lane id="1_1" index="1" speed="13.89" length="804.67" shape="0.00,3.99 804.67,3.97"/>
    </edge>
    <edge id="10" from="8" to="9" priority="-1" type="1" spreadType="center" shape="3364.62,2.26 3683.55,2.25">
        <lane id="10_0" index="0" speed="13.89" length="319.93" shape="3364.12,0.61 3684.05,0.60"/>
        <lane id="10_1" index="1" speed="13.89" length="319.93" shape="3364.12,3.91 3684.05,3.90"/>
    </edge>
    <edge id="11" from="9" to="10" priority="-1" type="1" spreadType="center" shape="3684.55,2.25 4003.48,2.24">
        <lane id="11_0" index="0" speed="13.89" length="319.93" shape="3684.05,0.60 4003.98,0.59"/>
        <lane id="11_1" index="1" speed="13.89" length="319.93" shape="3684.05,3.90 4003.98,3.89"/>
    </edge>
    <edge id="12" from="10" to="11" priority="-1" type="1" spreadType="center" shape="4004.48,2.24 4323.41,2.24">
        <lane id="12_0" index="0" speed="13.89" length="319.93" shape="4003.98,0.59 4323.91,0.59"/>
        <lane id="12_1" index="1" speed="13.89" length="319.93" shape="4003.98,3.89 4323.91,3.89"/>
    </edge>
    <edge id="13" from="11" to="12" priority="-1" type="1" spreadType="center" shape="4324.41,2.24 4643.34,2.23">
        <lane id="13_0" index="0" speed="13.89" length="319.93" shape="4323.91,0.59 4643.84,0.58"/>
        <lane id="13_1" index="1" speed="13.89" length="319.93" shape="4323.91,3.89 4643.84,3.88"/>
    </edge>
    <edge id="14" from="12" to="13" priority="-1" type="1" spreadType="center" shape="4644.34,2.23 4963.27,2.22">
        <lane id="14_0" index="0" speed="13.89" length="319.93" shape="4643.84,0.58 4963.77,0.57"/>
        <lane id="14_1" index="1" speed="13.89" length="319.93" shape="4643.84,3.88 4963.77,3.87"/>
    </edge>
    <edge id="15" from="13" to="14" priority="-1" type="1" spreadType="center" shape="4964.27,2.22 5283.20,2.21">
        <lane id="15_0" index="0" speed="13.89" length="319.93" shape="4963.77,0.57 5283.70,0.56"/>
        <lane id="15_1" index="1" speed="13.89" length="319.93" shape="4963.77,3.87 5283.70,3.86"/>
    </edge>
    <edge id="16" from="14" to="15" priority="-1" type="1" spreadType="center" shape="5284.20,2.21 5603.13,2.20">
        <lane id="16_0" index="0" speed="13.89" length="319.93" shape="5283.70,0.56 5603.63,0.55"/>
        <lane id="16_1" index="1" speed="13.89" length="319.93" shape="5283.70,3.86 5603.63,3.85"/>
    </edge>
    <edge id="17" from="15" to="16" priority="-1" type="1" spreadType="center" shape="5604.13,2.20 5923.06,2.20">
        <lane id="17_0" index="0" speed="13.89" length="319.93" shape="5603.63,0.55 5923.56,0.55"/>
        <lane id="17_1" index="1" speed="13.89" length="319.93" shape="5603.63,3.85 5923.56,3.85"/>
    </edge>
    <edge id="18" from="16" to="17" priority="-1" type="1" spreadType="center" shape="5924.06,2.20 6242.99,2.19">
        <lane id="18_0" index="0" speed="13.89" length="319.93" shape="5923.56,0.55 6243.49,0.54"/>
        <lane id="18_1" index="1" speed="13.89" length="319.93" shape="5923.56,3.85 6243.49,3.84"/>
    </edge>
    <edge id="19" from="17" to="18" priority="-1" type="1" spreadType="center" shape="6243.99,2.19 6562.92,2.18">
        <lane id="19_0" index="0" speed="13.89" length="319.93" shape="6243.49,0.54 6563.42,0.53"/>
        <lane id="19_1" index="1" speed="13.89" length="319.93" shape="6243.49,3.84 6563.42,3.83"/>
    </edge>
    <edge id="2" from="0" to="1" priority="-1" type="1" spreadType="center" shape="805.17,2.32 1124.10,2.31">
        <lane id="2_0" index="0" speed="13.89" length="319.93" shape="804.67,0.67 1124.60,0.66"/>
        <lane id="2_1" index="1" speed="13.89" length="319.93" shape="804.67,3.97 1124.60,3.96"/>
    </edge>
    <edge id="20" from="18" to="19" priority="-1" type="1" spreadType="center" shape="6563.92,2.18 6882.85,2.17">
        <lane id="20_0" index="0" speed="13.89" length="319.93" shape="6563.42,0.53 6883.35,0.52"/>
        <lane id="20_1" index="1" speed="13.89" length="319.93" shape="6563.42,3.83 6883.35,3.82"/>
    </edge>
    <edge id="21" from="19" to="20" priority="-1" type="1" spreadType="center" shape="6883.85,2.17 7202.78,2.17">
        <lane id="21_0" index="0" speed="13.89" length="318.43" shape="6883.35,0.52 7201.78,0.52"/>
        <lane id="21_1" index="1" speed="13.89" length="318.43" shape="6883.35,3.82 7201.78,3.82"/>
    </edge>
    <edge id="22" from="20" to="21" priority="-1" type="1" spreadType="center" shape="7203.78,4.18 7508.08,4.17">
        <lane id="22_0" index="0" speed="13.89" length="302.30" shape="7204.78,4.18 7507.08,4.17"/>
    </edge>
    <edge id="23" from="21" to="23-end" priority="-1" type="1" spreadType="center" shape="7509.08,2.16 8046.50,2.14">
        <lane id="23_0" index="0" speed="13.89" length="536.42" shape="7510.08,0.51 8046.50,0.49"/>
        <lane id="23_1" index="1" speed="13.89" length="536.42" shape="7510.08,3.81 8046.50,3.79"/>
    </edge>
    <edge id="3" from="1" to="2" priority="-1" type="1" spreadType="center" shape="1125.10,2.31 1444.03,2.31">
        <lane id="3_0" index="0" speed="13.89" length="319.93" shape="1124.60,0.66 1444.53,0.66"/>
        <lane id="3_1" index="1" speed="13.89" length="319.93" shape="1124.60,3.96 1444.53,3.96"/>
    </edge>
    <edge id="35" from="35-SourceNode" to="35-DestinationNode" priority="-1" type="1" spreadType="center">
        <lane id="35_0" index="0" speed="13.89" length="292.97" shape="7210.71,0.00 7503.68,0.02"/>
    </edge>
    <edge id="4" from="2" to="3" priority="-1" type="1" spreadType="center" shape="1445.03,2.31 1763.96,2.30">
        <lane id="4_0" index="0" speed="13.89" length="319.93" shape="1444.53,0.66 1764.46,0.65"/>
        <lane id="4_1" index="1" speed="13.89" length="319.93" shape="1444.53,3.96 1764.46,3.95"/>
    </edge>
    <edge id="5" from="3" to="4" priority="-1" type="1" spreadType="center" shape="1764.96,2.30 2083.89,2.29">
        <lane id="5_0" index="0" speed="13.89" length="319.93" shape="1764.46,0.65 2084.39,0.64"/>
        <lane id="5_1" index="1" speed="13.89" length="319.93" shape="1764.46,3.95 2084.39,3.94"/>
    </edge>
    <edge id="6" from="4" to="5" priority="-1" type="1" spreadType="center" shape="2084.89,2.29 2403.82,2.28">
        <lane id="6_0" index="0" speed="13.89" length="319.93" shape="2084.39,0.64 2404.32,0.63"/>
        <lane id="6_1" index="1" speed="13.89" length="319.93" shape="2084.39,3.94 2404.32,3.93"/>
    </edge>
    <edge id="7" from="5" to="6" priority="-1" type="1" spreadType="center" shape="2404.82,2.28 2723.75,2.27">
        <lane id="7_0" index="0" speed="13.89" length="319.93" shape="2404.32,0.63 2724.25,0.62"/>
        <lane id="7_1" index="1" speed="13.89" length="319.93" shape="2404.32,3.93 2724.25,3.92"/>
    </edge>
    <edge id="8" from="6" to="7" priority="-1" type="1" spreadType="center" shape="2724.75,2.27 3043.68,2.27">
        <lane id="8_0" index="0" speed="13.89" length="319.93" shape="2724.25,0.62 3044.18,0.62"/>
        <lane id="8_1" index="1" speed="13.89" length="319.93" shape="2724.25,3.92 3044.18,3.92"/>
    </edge>
    <edge id="9" from="7" to="8" priority="-1" type="1" spreadType="center" shape="3044.68,2.27 3363.62,2.26">
        <lane id="9_0" index="0" speed="13.89" length="319.93" shape="3044.18,0.62 3364.12,0.61"/>
        <lane id="9_1" index="1" speed="13.89" length="319.93" shape="3044.18,3.92 3364.12,3.91"/>
    </edge>

    <junction id="0" type="priority" x="804.17" y="2.32" incLanes="1_0 1_1" intLanes=":0_0_0 :0_0_1" shape="804.67,5.57 804.67,-0.93 804.67,5.57">
        <request index="0" response="00" foes="00" cont="0"/>
        <request index="1" response="00" foes="00" cont="0"/>
    </junction>
    <junction id="1" type="priority" x="1124.10" y="2.31" incLanes="2_0 2_1" intLanes=":1_0_0 :1_0_1" shape="1124.60,5.56 1124.60,-0.94 1124.60,5.56">
        <request index="0" response="00" foes="00" cont="0"/>
        <request index="1" response="00" foes="00" cont="0"/>
    </junction>
    <junction id="1-begin" type="unregulated" x="0.00" y="2.34" incLanes="" intLanes="" shape="0.00,5.59 -0.00,-0.91"/>
    <junction id="10" type="priority" x="4003.47" y="2.24" incLanes="11_0 11_1" intLanes=":10_0_0 :10_0_1" shape="4003.98,5.49 4003.98,-1.01 4003.98,5.49">
        <request index="0" response="00" foes="00" cont="0"/>
        <request index="1" response="00" foes="00" cont="0"/>
    </junction>
    <junction id="11" type="priority" x="4323.41" y="2.24" incLanes="12_0 12_1" intLanes=":11_0_0 :11_0_1" shape="4323.91,5.49 4323.91,-1.01 4323.91,5.49">
        <request index="0" response="00" foes="00" cont="0"/>
        <request index="1" response="00" foes="00" cont="0"/>
    </junction>
    <junction id="12" type="priority" x="4643.34" y="2.23" incLanes="13_0 13_1" intLanes=":12_0_0 :12_0_1" shape="4643.84,5.48 4643.84,-1.02 4643.84,5.48">
        <request index="0" response="00" foes="00" cont="0"/>
        <request index="1" response="00" foes="00" cont="0"/>
    </junction>
    <junction id="13" type="priority" x="4963.27" y="2.22" incLanes="14_0 14_1" intLanes=":13_0_0 :13_0_1" shape="4963.77,5.47 4963.77,-1.03 4963.77,5.47">
        <request index="0" response="00" foes="00" cont="0"/>
        <request index="1" response="00" foes="00" cont="0"/>
    </junction>
    <junction id="14" type="priority" x="5283.20" y="2.21" incLanes="15_0 15_1" intLanes=":14_0_0 :14_0_1" shape="5283.70,5.46 5283.70,-1.04 5283.70,5.46">
        <request index="0" response="00" foes="00" cont="0"/>
        <request index="1" response="00" foes="00" cont="0"/>
    </junction>
    <junction id="15" type="priority" x="5603.13" y="2.20" incLanes="16_0 16_1" intLanes=":15_0_0 :15_0_1" shape="5603.63,5.45 5603.63,-1.05 5603.63,5.45">
        <request index="0" response="00" foes="00" cont="0"/>
        <request index="1" response="00" foes="00" cont="0"/>
    </junction>
    <junction id="16" type="priority" x="5923.06" y="2.20" incLanes="17_0 17_1" intLanes=":16_0_0 :16_0_1" shape="5923.56,5.45 5923.56,-1.05 5923.56,5.45">
        <request index="0" response="00" foes="00" cont="0"/>
        <request index="1" response="00" foes="00" cont="0"/>
    </junction>
    <junction id="17" type="priority" x="6242.99" y="2.19" incLanes="18_0 18_1" intLanes=":17_0_0 :17_0_1" shape="6243.49,5.44 6243.49,-1.06 6243.49,5.44">
        <request index="0" response="00" foes="00" cont="0"/>
        <request index="1" response="00" foes="00" cont="0"/>
    </junction>
    <junction id="18" type="priority" x="6562.92" y="2.18" incLanes="19_0 19_1" intLanes=":18_0_0 :18_0_1" shape="6563.42,5.43 6563.42,-1.07 6563.42,5.43">
        <request index="0" response="00" foes="00" cont="0"/>
        <request index="1" response="00" foes="00" cont="0"/>
    </junction>
    <junction id="19" type="priority" x="6882.85" y="2.17" incLanes="20_0 20_1" intLanes=":19_0_0 :19_0_1" shape="6883.35,5.42 6883.35,-1.08 6883.35,5.42">
        <request index="0" response="00" foes="00" cont="0"/>
        <request index="1" response="00" foes="00" cont="0"/>
    </junction>
    <junction id="2" type="priority" x="1444.03" y="2.31" incLanes="3_0 3_1" intLanes=":2_0_0 :2_0_1" shape="1444.53,5.56 1444.53,-0.94 1444.53,5.56">
        <request index="0" response="00" foes="00" cont="0"/>
        <request index="1" response="00" foes="00" cont="0"/>
    </junction>
    <junction id="20" type="priority" x="7201.84" y="2.17" incLanes="21_0 21_1" intLanes=":20_0_0" shape="7204.78,5.78 7204.78,2.58 7201.78,-1.08 7201.78,5.42">
        <request index="0" response="0" foes="0" cont="0"/>
    </junction>
    <junction id="21" type="priority" x="7506.71" y="4.17" incLanes="22_0" intLanes=":21_0_0 :21_0_1" shape="7510.08,5.41 7510.08,-1.09 7507.08,2.57 7507.08,5.77">
        <request index="0" response="00" foes="00" cont="0"/>
        <request index="1" response="00" foes="00" cont="0"/>
    </junction>
    <junction id="23-end" type="unregulated" x="8046.50" y="2.14" incLanes="23_0 23_1" intLanes="" shape="8046.50,-1.11 8046.50,5.39"/>
    <junction id="3" type="priority" x="1763.96" y="2.30" incLanes="4_0 4_1" intLanes=":3_0_0 :3_0_1" shape="1764.46,5.55 1764.46,-0.95 1764.46,5.55">
        <request index="0" response="00" foes="00" cont="0"/>
        <request index="1" response="00" foes="00" cont="0"/>
    </junction>
    <junction id="35-DestinationNode" type="unregulated" x="7503.68" y="0.02" incLanes="35_0" intLanes="" shape="7503.68,-1.58 7503.68,1.62"/>
    <junction id="35-SourceNode" type="unregulated" x="7210.71" y="0.00" incLanes="" intLanes="" shape="7210.71,1.60 7210.71,-1.60"/>
    <junction id="4" type="priority" x="2083.89" y="2.29" incLanes="5_0 5_1" intLanes=":4_0_0 :4_0_1" shape="2084.39,5.54 2084.39,-0.96 2084.39,5.54">
        <request index="0" response="00" foes="00" cont="0"/>
        <request index="1" response="00" foes="00" cont="0"/>
    </junction>
    <junction id="5" type="priority" x="2403.82" y="2.28" incLanes="6_0 6_1" intLanes=":5_0_0 :5_0_1" shape="2404.32,5.53 2404.32,-0.97 2404.32,5.53">
        <request index="0" response="00" foes="00" cont="0"/>
        <request index="1" response="00" foes="00" cont="0"/>
    </junction>
    <junction id="6" type="priority" x="2723.75" y="2.27" incLanes="7_0 7_1" intLanes=":6_0_0 :6_0_1" shape="2724.25,5.52 2724.25,-0.98 2724.25,5.52">
        <request index="0" response="00" foes="00" cont="0"/>
        <request index="1" response="00" foes="00" cont="0"/>
    </junction>
    <junction id="7" type="priority" x="3043.68" y="2.27" incLanes="8_0 8_1" intLanes=":7_0_0 :7_0_1" shape="3044.18,5.52 3044.18,-0.98 3044.18,5.52">
        <request index="0" response="00" foes="00" cont="0"/>
        <request index="1" response="00" foes="00" cont="0"/>
    </junction>
    <junction id="8" type="priority" x="3363.61" y="2.26" incLanes="9_0 9_1" intLanes=":8_0_0 :8_0_1" shape="3364.12,5.51 3364.12,-0.99 3364.12,5.51">
        <request index="0" response="00" foes="00" cont="0"/>
        <request index="1" response="00" foes="00" cont="0"/>
    </junction>
    <junction id="9" type="priority" x="3683.54" y="2.25" incLanes="10_0 10_1" intLanes=":9_0_0 :9_0_1" shape="3684.05,5.50 3684.05,-1.00 3684.05,5.50">
        <request index="0" response="00" foes="00" cont="0"/>
        <request index="1" response="00" foes="00" cont="0"/>
    </junction>

    <connection from="1" to="2" fromLane="0" toLane="0" via=":0_0_0" dir="s" state="M"/>
    <connection from="1" to="2" fromLane="1" toLane="1" via=":0_0_1" dir="s" state="M"/>
    <connection from="10" to="11" fromLane="0" toLane="0" via=":9_0_0" dir="s" state="M"/>
    <connection from="10" to="11" fromLane="1" toLane="1" via=":9_0_1" dir="s" state="M"/>
    <connection from="11" to="12" fromLane="0" toLane="0" via=":10_0_0" dir="s" state="M"/>
    <connection from="11" to="12" fromLane="1" toLane="1" via=":10_0_1" dir="s" state="M"/>
    <connection from="12" to="13" fromLane="0" toLane="0" via=":11_0_0" dir="s" state="M"/>
    <connection from="12" to="13" fromLane="1" toLane="1" via=":11_0_1" dir="s" state="M"/>
    <connection from="13" to="14" fromLane="0" toLane="0" via=":12_0_0" dir="s" state="M"/>
    <connection from="13" to="14" fromLane="1" toLane="1" via=":12_0_1" dir="s" state="M"/>
    <connection from="14" to="15" fromLane="0" toLane="0" via=":13_0_0" dir="s" state="M"/>
    <connection from="14" to="15" fromLane="1" toLane="1" via=":13_0_1" dir="s" state="M"/>
    <connection from="15" to="16" fromLane="0" toLane="0" via=":14_0_0" dir="s" state="M"/>
    <connection from="15" to="16" fromLane="1" toLane="1" via=":14_0_1" dir="s" state="M"/>
    <connection from="16" to="17" fromLane="0" toLane="0" via=":15_0_0" dir="s" state="M"/>
    <connection from="16" to="17" fromLane="1" toLane="1" via=":15_0_1" dir="s" state="M"/>
    <connection from="17" to="18" fromLane="0" toLane="0" via=":16_0_0" dir="s" state="M"/>
    <connection from="17" to="18" fromLane="1" toLane="1" via=":16_0_1" dir="s" state="M"/>
    <connection from="18" to="19" fromLane="0" toLane="0" via=":17_0_0" dir="s" state="M"/>
    <connection from="18" to="19" fromLane="1" toLane="1" via=":17_0_1" dir="s" state="M"/>
    <connection from="19" to="20" fromLane="0" toLane="0" via=":18_0_0" dir="s" state="M"/>
    <connection from="19" to="20" fromLane="1" toLane="1" via=":18_0_1" dir="s" state="M"/>
    <connection from="2" to="3" fromLane="0" toLane="0" via=":1_0_0" dir="s" state="M"/>
    <connection from="2" to="3" fromLane="1" toLane="1" via=":1_0_1" dir="s" state="M"/>
    <connection from="20" to="21" fromLane="0" toLane="0" via=":19_0_0" dir="s" state="M"/>
    <connection from="20" to="21" fromLane="1" toLane="1" via=":19_0_1" dir="s" state="M"/>
    <connection from="21" to="22" fromLane="1" toLane="0" via=":20_0_0" dir="s" state="M"/>
    <connection from="22" to="23" fromLane="0" toLane="0" via=":21_0_0" dir="s" state="M"/>
    <connection from="22" to="23" fromLane="0" toLane="1" via=":21_0_1" dir="s" state="M"/>
    <connection from="3" to="4" fromLane="0" toLane="0" via=":2_0_0" dir="s" state="M"/>
    <connection from="3" to="4" fromLane="1" toLane="1" via=":2_0_1" dir="s" state="M"/>
    <connection from="4" to="5" fromLane="0" toLane="0" via=":3_0_0" dir="s" state="M"/>
    <connection from="4" to="5" fromLane="1" toLane="1" via=":3_0_1" dir="s" state="M"/>
    <connection from="5" to="6" fromLane="0" toLane="0" via=":4_0_0" dir="s" state="M"/>
    <connection from="5" to="6" fromLane="1" toLane="1" via=":4_0_1" dir="s" state="M"/>
    <connection from="6" to="7" fromLane="0" toLane="0" via=":5_0_0" dir="s" state="M"/>
    <connection from="6" to="7" fromLane="1" toLane="1" via=":5_0_1" dir="s" state="M"/>
    <connection from="7" to="8" fromLane="0" toLane="0" via=":6_0_0" dir="s" state="M"/>
    <connection from="7" to="8" fromLane="1" toLane="1" via=":6_0_1" dir="s" state="M"/>
    <connection from="8" to="9" fromLane="0" toLane="0" via=":7_0_0" dir="s" state="M"/>
    <connection from="8" to="9" fromLane="1" toLane="1" via=":7_0_1" dir="s" state="M"/>
    <connection from="9" to="10" fromLane="0" toLane="0" via=":8_0_0" dir="s" state="M"/>
    <connection from="9" to="10" fromLane="1" toLane="1" via=":8_0_1" dir="s" state="M"/>

    <connection from=":0_0" to="2" fromLane="0" toLane="0" dir="s" state="M"/>
    <connection from=":0_0" to="2" fromLane="1" toLane="1" dir="s" state="M"/>
    <connection from=":1_0" to="3" fromLane="0" toLane="0" dir="s" state="M"/>
    <connection from=":1_0" to="3" fromLane="1" toLane="1" dir="s" state="M"/>
    <connection from=":10_0" to="12" fromLane="0" toLane="0" dir="s" state="M"/>
    <connection from=":10_0" to="12" fromLane="1" toLane="1" dir="s" state="M"/>
    <connection from=":11_0" to="13" fromLane="0" toLane="0" dir="s" state="M"/>
    <connection from=":11_0" to="13" fromLane="1" toLane="1" dir="s" state="M"/>
    <connection from=":12_0" to="14" fromLane="0" toLane="0" dir="s" state="M"/>
    <connection from=":12_0" to="14" fromLane="1" toLane="1" dir="s" state="M"/>
    <connection from=":13_0" to="15" fromLane="0" toLane="0" dir="s" state="M"/>
    <connection from=":13_0" to="15" fromLane="1" toLane="1" dir="s" state="M"/>
    <connection from=":14_0" to="16" fromLane="0" toLane="0" dir="s" state="M"/>
    <connection from=":14_0" to="16" fromLane="1" toLane="1" dir="s" state="M"/>
    <connection from=":15_0" to="17" fromLane="0" toLane="0" dir="s" state="M"/>
    <connection from=":15_0" to="17" fromLane="1" toLane="1" dir="s" state="M"/>
    <connection from=":16_0" to="18" fromLane="0" toLane="0" dir="s" state="M"/>
    <connection from=":16_0" to="18" fromLane="1" toLane="1" dir="s" state="M"/>
    <connection from=":17_0" to="19" fromLane="0" toLane="0" dir="s" state="M"/>
    <connection from=":17_0" to="19" fromLane="1" toLane="1" dir="s" state="M"/>
    <connection from=":18_0" to="20" fromLane="0" toLane="0" dir="s" state="M"/>
    <connection from=":18_0" to="20" fromLane="1" toLane="1" dir="s" state="M"/>
    <connection from=":19_0" to="21" fromLane="0" toLane="0" dir="s" state="M"/>
    <connection from=":19_0" to="21" fromLane="1" toLane="1" dir="s" state="M"/>
    <connection from=":2_0" to="4" fromLane="0" toLane="0" dir="s" state="M"/>
    <connection from=":2_0" to="4" fromLane="1" toLane="1" dir="s" state="M"/>
    <connection from=":20_0" to="22" fromLane="0" toLane="0" dir="s" state="M"/>
    <connection from=":21_0" to="23" fromLane="0" toLane="0" dir="s" state="M"/>
    <connection from=":21_0" to="23" fromLane="1" toLane="1" dir="s" state="M"/>
    <connection from=":3_0" to="5" fromLane="0" toLane="0" dir="s" state="M"/>
    <connection from=":3_0" to="5" fromLane="1" toLane="1" dir="s" state="M"/>
    <connection from=":4_0" to="6" fromLane="0" toLane="0" dir="s" state="M"/>
    <connection from=":4_0" to="6" fromLane="1" toLane="1" dir="s" state="M"/>
    <connection from=":5_0" to="7" fromLane="0" toLane="0" dir="s" state="M"/>
    <connection from=":5_0" to="7" fromLane="1" toLane="1" dir="s" state="M"/>
    <connection from=":6_0" to="8" fromLane="0" toLane="0" dir="s" state="M"/>
    <connection from=":6_0" to="8" fromLane="1" toLane="1" dir="s" state="M"/>
    <connection from=":7_0" to="9" fromLane="0" toLane="0" dir="s" state="M"/>
    <connection from=":7_0" to="9" fromLane="1" toLane="1" dir="s" state="M"/>
    <connection from=":8_0" to="10" fromLane="0" toLane="0" dir="s" state="M"/>
    <connection from=":8_0" to="10" fromLane="1" toLane="1" dir="s" state="M"/>
    <connection from=":9_0" to="11" fromLane="0" toLane="0" dir="s" state="M"/>
    <connection from=":9_0" to="11" fromLane="1" toLane="1" dir="s" state="M"/>

</net>
