[General]
cmdenv-express-mode = true
cmdenv-autoflush = true
cmdenv-status-frequency = 1s
**.cmdenv-log-level = info

ned-path = .
image-path = ../../images

network = SmartConeScenario

##########################################################
#            Simulation parameters                       #
##########################################################
# * means TutorialScenario at the begginning
debug-on-errors = true
print-undisposed = false

sim-time-limit = 4000s #TODO: change to 4000s later

**.scalar-recording = true
**.vector-recording = true

**.debug = false
**.coreDebug = false

# tkenv-image-path = path/to/background/image.png
*.playgroundSizeX = 50000m
*.playgroundSizeY = 2500m
*.playgroundSizeZ = 50m

##########################################################
# Annotation parameters                                  #
##########################################################
*.annotations.draw = true


##########################################################
# Obstacle parameters                                    #
##########################################################
#*.obstacles.debug = false
#*.obstacles.obstacles = xmldoc("config.xml", "veins/modules/AnalogueModel[@type='SimpleObstacleShadowing']/obstacles")

##########################################################
#            TraCIScenarioManager parameters             #
##########################################################
*.manager.updateInterval = 0.1s # time interval of hosts' position updates
*.manager.host = "localhost"
*.manager.port = 9999
*.manager.autoShutdown = true
*.manager.launchConfig = xmldoc("smartcone.launchd.xml")
*.manager.penetrationRate = 0.1 # the probability of a vehicle being equipped with Car2X technology
*.manager.numVehicles = 4000

##########################################################
#                       RSU SETTINGS                     #
#                                                        #
#                                                        #
##########################################################
*.rsu[0].mobility.x = 2000
*.rsu[0].mobility.y = 2000
*.rsu[0].mobility.z = 3

*.rsu[*].applType = "TraCIDemoRSU11p"
*.rsu[*].appl.headerLength = 80 bit
*.rsu[*].appl.sendBeacons = true
*.rsu[*].appl.dataOnSch = false
*.rsu[*].appl.beaconInterval = 1s
*.rsu[*].appl.beaconUserPriority = 7
*.rsu[*].appl.dataUserPriority = 5

##########################################################
#            11p specific parameters                     #
#                                                        #
#                    NIC-Settings                        #
##########################################################
*.connectionManager.sendDirect = true
*.connectionManager.maxInterfDist = 2600m
*.connectionManager.drawMaxIntfDist = false

*.**.nic.mac1609_4.useServiceChannel = false

*.**.nic.mac1609_4.txPower = 20mW
*.**.nic.mac1609_4.bitrate = 6Mbps
*.**.nic.phy80211p.sensitivity = -89dBm

*.**.nic.phy80211p.useThermalNoise = true
*.**.nic.phy80211p.thermalNoise = -110dBm

*.**.nic.phy80211p.decider = xmldoc("config.xml")
*.**.nic.phy80211p.analogueModels = xmldoc("config.xml")
*.**.nic.phy80211p.usePropagationDelay = true

*.**.nic.phy80211p.antenna = xmldoc("antenna.xml", "/root/Antenna[@id='monopole']")


##########################################################
#                    WaveAppLayer                        #
##########################################################
*.node[*].applType = "SmartConeApp"
*.node[*].appl.headerLength = 80 bit
*.node[*].appl.sendBeacons = true
*.node[*].appl.dataOnSch = false
*.node[*].appl.beaconInterval = 1s


##########################################################
#                      Mobility                          #
##########################################################
*.node[*].veinsmobilityType.debug = true
*.node[*].veinsmobility.x = 0
*.node[*].veinsmobility.y = 0
*.node[*].veinsmobility.z = 1.895
*.node[*0].veinsmobility.accidentCount = 1
*.node[*0].veinsmobility.accidentStart = 75s
*.node[*0].veinsmobility.accidentDuration = 50s


# *.node[*0].veinsmobility.accidentCount = 1
# *.node[*0].veinsmobility.accidentStart = 75s
# *.node[*0].veinsmobility.accidentDuration = 30s


[Config WithoutChannelSwitching]

[Config WithChannelSwitching]
*.**.nic.mac1609_4.useServiceChannel = true
*.node[*].appl.dataOnSch = true
*.rsu[*].appl.dataOnSch = true
