<?xml version="1.0" encoding="UTF-8"?>

<!-- generated on Wed Apr 18 15:50:16 2018 by SUMO duarouter Version 0.30.0
<?xml version="1.0" encoding="UTF-8"?>

<configuration xmlns:xsi="http://www.w3.org/2001/XMLSchema-instance" xsi:noNamespaceSchemaLocation="http://sumo.dlr.de/xsd/duarouterConfiguration.xsd">

    <input>
        <net-file value="smartcone.net.xml"/>
        <route-files value="myflow.rou.xml"/>
    </input>

    <output>
        <output-file value="smartcone.rou.xml"/>
    </output>

    <processing>
        <randomize-flows value="true"/>
    </processing>

</configuration>
-->

<routes xmlns:xsi="http://www.w3.org/2001/XMLSchema-instance" xsi:noNamespaceSchemaLocation="http://sumo.dlr.de/xsd/routes_file.xsd">
    <vType id="pc" maxSpeed="34.87" vClass="passenger" laneChangeModel="default" lcStrategic="0.5" lcCooperative="0.5"/>
    <vehicle id="car.0" type="pc" depart="0.79" departLane="free" departSpeed="max">
        <route edges="0 1 2 3 4 5 6 7 8 9 10 11 12"/>
    </vehicle>
    <vehicle id="car.1" type="pc" depart="2.36" departLane="free" departSpeed="max">
        <route edges="0 1 2 3 4 5 6 7 8 9 10 11 12"/>
    </vehicle>
    <vehicle id="car.2" type="pc" depart="2.75" departLane="free" departSpeed="max">
        <route edges="0 1 2 3 4 5 6 7 8 9 10 11 12"/>
    </vehicle>
    <vehicle id="car.3" type="pc" depart="2.83" departLane="free" departSpeed="max">
        <route edges="0 1 2 3 4 5 6 7 8 9 10 11 12"/>
    </vehicle>
    <vehicle id="car.4" type="pc" depart="4.77" departLane="free" departSpeed="max">
        <route edges="0 1 2 3 4 5 6 7 8 9 10 11 12"/>
    </vehicle>
    <vehicle id="car.5" type="pc" depart="6.14" departLane="free" departSpeed="max">
        <route edges="0 1 2 3 4 5 6 7 8 9 10 11 12"/>
    </vehicle>
    <vehicle id="car.6" type="pc" depart="8.55" departLane="free" departSpeed="max">
        <route edges="0 1 2 3 4 5 6 7 8 9 10 11 12"/>
    </vehicle>
    <vehicle id="car.7" type="pc" depart="8.91" departLane="free" departSpeed="max">
        <route edges="0 1 2 3 4 5 6 7 8 9 10 11 12"/>
    </vehicle>
    <vehicle id="car.8" type="pc" depart="9.74" departLane="free" departSpeed="max">
        <route edges="0 1 2 3 4 5 6 7 8 9 10 11 12"/>
    </vehicle>
    <vehicle id="car.9" type="pc" depart="11.12" departLane="free" departSpeed="max">
        <route edges="0 1 2 3 4 5 6 7 8 9 10 11 12"/>
    </vehicle>
    <vehicle id="car.10" type="pc" depart="12.93" departLane="free" departSpeed="max">
        <route edges="0 1 2 3 4 5 6 7 8 9 10 11 12"/>
    </vehicle>
    <vehicle id="car.11" type="pc" depart="13.05" departLane="free" departSpeed="max">
        <route edges="0 1 2 3 4 5 6 7 8 9 10 11 12"/>
    </vehicle>
    <vehicle id="car.12" type="pc" depart="13.56" departLane="free" departSpeed="max">
        <route edges="0 1 2 3 4 5 6 7 8 9 10 11 12"/>
    </vehicle>
    <vehicle id="car.13" type="pc" depart="16.72" departLane="free" departSpeed="max">
        <route edges="0 1 2 3 4 5 6 7 8 9 10 11 12"/>
    </vehicle>
    <vehicle id="car.14" type="pc" depart="17.15" departLane="free" departSpeed="max">
        <route edges="0 1 2 3 4 5 6 7 8 9 10 11 12"/>
    </vehicle>
    <vehicle id="car.15" type="pc" depart="18.13" departLane="free" departSpeed="max">
        <route edges="0 1 2 3 4 5 6 7 8 9 10 11 12"/>
    </vehicle>
    <vehicle id="car.16" type="pc" depart="18.39" departLane="free" departSpeed="max">
        <route edges="0 1 2 3 4 5 6 7 8 9 10 11 12"/>
    </vehicle>
    <vehicle id="car.17" type="pc" depart="19.61" departLane="free" departSpeed="max">
        <route edges="0 1 2 3 4 5 6 7 8 9 10 11 12"/>
    </vehicle>
    <vehicle id="car.18" type="pc" depart="20.23" departLane="free" departSpeed="max">
        <route edges="0 1 2 3 4 5 6 7 8 9 10 11 12"/>
    </vehicle>
    <vehicle id="car.19" type="pc" depart="20.98" departLane="free" departSpeed="max">
        <route edges="0 1 2 3 4 5 6 7 8 9 10 11 12"/>
    </vehicle>
    <vehicle id="car.20" type="pc" depart="22.71" departLane="free" departSpeed="max">
        <route edges="0 1 2 3 4 5 6 7 8 9 10 11 12"/>
    </vehicle>
    <vehicle id="car.21" type="pc" depart="23.05" departLane="free" departSpeed="max">
        <route edges="0 1 2 3 4 5 6 7 8 9 10 11 12"/>
    </vehicle>
    <vehicle id="car.22" type="pc" depart="24.98" departLane="free" departSpeed="max">
        <route edges="0 1 2 3 4 5 6 7 8 9 10 11 12"/>
    </vehicle>
    <vehicle id="car.23" type="pc" depart="26.51" departLane="free" departSpeed="max">
        <route edges="0 1 2 3 4 5 6 7 8 9 10 11 12"/>
    </vehicle>
    <vehicle id="car.24" type="pc" depart="27.48" departLane="free" departSpeed="max">
        <route edges="0 1 2 3 4 5 6 7 8 9 10 11 12"/>
    </vehicle>
    <vehicle id="car.25" type="pc" depart="36.86" departLane="free" departSpeed="max">
        <route edges="0 1 2 3 4 5 6 7 8 9 10 11 12"/>
    </vehicle>
    <vehicle id="car.26" type="pc" depart="37.70" departLane="free" departSpeed="max">
        <route edges="0 1 2 3 4 5 6 7 8 9 10 11 12"/>
    </vehicle>
    <vehicle id="car.27" type="pc" depart="37.74" departLane="free" departSpeed="max">
        <route edges="0 1 2 3 4 5 6 7 8 9 10 11 12"/>
    </vehicle>
    <vehicle id="car.28" type="pc" depart="39.03" departLane="free" departSpeed="max">
        <route edges="0 1 2 3 4 5 6 7 8 9 10 11 12"/>
    </vehicle>
    <vehicle id="car.29" type="pc" depart="46.90" departLane="free" departSpeed="max">
        <route edges="0 1 2 3 4 5 6 7 8 9 10 11 12"/>
    </vehicle>
    <vehicle id="car.30" type="pc" depart="47.01" departLane="free" departSpeed="max">
        <route edges="0 1 2 3 4 5 6 7 8 9 10 11 12"/>
    </vehicle>
    <vehicle id="car.31" type="pc" depart="50.60" departLane="free" departSpeed="max">
        <route edges="0 1 2 3 4 5 6 7 8 9 10 11 12"/>
    </vehicle>
    <vehicle id="car.32" type="pc" depart="52.47" departLane="free" departSpeed="max">
        <route edges="0 1 2 3 4 5 6 7 8 9 10 11 12"/>
    </vehicle>
    <vehicle id="car.33" type="pc" depart="53.69" departLane="free" departSpeed="max">
        <route edges="0 1 2 3 4 5 6 7 8 9 10 11 12"/>
    </vehicle>
    <vehicle id="car.34" type="pc" depart="54.47" departLane="free" departSpeed="max">
        <route edges="0 1 2 3 4 5 6 7 8 9 10 11 12"/>
    </vehicle>
    <vehicle id="car.35" type="pc" depart="55.65" departLane="free" departSpeed="max">
        <route edges="0 1 2 3 4 5 6 7 8 9 10 11 12"/>
    </vehicle>
    <vehicle id="car.36" type="pc" depart="56.51" departLane="free" departSpeed="max">
        <route edges="0 1 2 3 4 5 6 7 8 9 10 11 12"/>
    </vehicle>
    <vehicle id="car.37" type="pc" depart="57.85" departLane="free" departSpeed="max">
        <route edges="0 1 2 3 4 5 6 7 8 9 10 11 12"/>
    </vehicle>
    <vehicle id="car.38" type="pc" depart="58.23" departLane="free" departSpeed="max">
        <route edges="0 1 2 3 4 5 6 7 8 9 10 11 12"/>
    </vehicle>
    <vehicle id="car.39" type="pc" depart="64.90" departLane="free" departSpeed="max">
        <route edges="0 1 2 3 4 5 6 7 8 9 10 11 12"/>
    </vehicle>
    <vehicle id="car.40" type="pc" depart="70.25" departLane="free" departSpeed="max">
        <route edges="0 1 2 3 4 5 6 7 8 9 10 11 12"/>
    </vehicle>
    <vehicle id="car.41" type="pc" depart="70.72" departLane="free" departSpeed="max">
        <route edges="0 1 2 3 4 5 6 7 8 9 10 11 12"/>
    </vehicle>
    <vehicle id="car.42" type="pc" depart="73.98" departLane="free" departSpeed="max">
        <route edges="0 1 2 3 4 5 6 7 8 9 10 11 12"/>
    </vehicle>
    <vehicle id="car.43" type="pc" depart="76.76" departLane="free" departSpeed="max">
        <route edges="0 1 2 3 4 5 6 7 8 9 10 11 12"/>
    </vehicle>
    <vehicle id="car.44" type="pc" depart="77.89" departLane="free" departSpeed="max">
        <route edges="0 1 2 3 4 5 6 7 8 9 10 11 12"/>
    </vehicle>
    <vehicle id="car.45" type="pc" depart="79.84" departLane="free" departSpeed="max">
        <route edges="0 1 2 3 4 5 6 7 8 9 10 11 12"/>
    </vehicle>
    <vehicle id="car.46" type="pc" depart="80.11" departLane="free" departSpeed="max">
        <route edges="0 1 2 3 4 5 6 7 8 9 10 11 12"/>
    </vehicle>
    <vehicle id="car.47" type="pc" depart="81.62" departLane="free" departSpeed="max">
        <route edges="0 1 2 3 4 5 6 7 8 9 10 11 12"/>
    </vehicle>
    <vehicle id="car.48" type="pc" depart="82.30" departLane="free" departSpeed="max">
        <route edges="0 1 2 3 4 5 6 7 8 9 10 11 12"/>
    </vehicle>
    <vehicle id="car.49" type="pc" depart="88.60" departLane="free" departSpeed="max">
        <route edges="0 1 2 3 4 5 6 7 8 9 10 11 12"/>
    </vehicle>
    <vehicle id="car.50" type="pc" depart="89.59" departLane="free" departSpeed="max">
        <route edges="0 1 2 3 4 5 6 7 8 9 10 11 12"/>
    </vehicle>
    <vehicle id="car.51" type="pc" depart="89.91" departLane="free" departSpeed="max">
        <route edges="0 1 2 3 4 5 6 7 8 9 10 11 12"/>
    </vehicle>
    <vehicle id="car.52" type="pc" depart="90.56" departLane="free" departSpeed="max">
        <route edges="0 1 2 3 4 5 6 7 8 9 10 11 12"/>
    </vehicle>
    <vehicle id="car.53" type="pc" depart="91.39" departLane="free" departSpeed="max">
        <route edges="0 1 2 3 4 5 6 7 8 9 10 11 12"/>
    </vehicle>
    <vehicle id="car.54" type="pc" depart="94.83" departLane="free" departSpeed="max">
        <route edges="0 1 2 3 4 5 6 7 8 9 10 11 12"/>
    </vehicle>
    <vehicle id="car.55" type="pc" depart="100.63" departLane="free" departSpeed="max">
        <route edges="0 1 2 3 4 5 6 7 8 9 10 11 12"/>
    </vehicle>
    <vehicle id="car.56" type="pc" depart="101.43" departLane="free" departSpeed="max">
        <route edges="0 1 2 3 4 5 6 7 8 9 10 11 12"/>
    </vehicle>
    <vehicle id="car.57" type="pc" depart="105.18" departLane="free" departSpeed="max">
        <route edges="0 1 2 3 4 5 6 7 8 9 10 11 12"/>
    </vehicle>
    <vehicle id="car.58" type="pc" depart="106.94" departLane="free" departSpeed="max">
        <route edges="0 1 2 3 4 5 6 7 8 9 10 11 12"/>
    </vehicle>
    <vehicle id="car.59" type="pc" depart="107.78" departLane="free" departSpeed="max">
        <route edges="0 1 2 3 4 5 6 7 8 9 10 11 12"/>
    </vehicle>
    <vehicle id="car.60" type="pc" depart="107.93" departLane="free" departSpeed="max">
        <route edges="0 1 2 3 4 5 6 7 8 9 10 11 12"/>
    </vehicle>
    <vehicle id="car.61" type="pc" depart="108.52" departLane="free" departSpeed="max">
        <route edges="0 1 2 3 4 5 6 7 8 9 10 11 12"/>
    </vehicle>
    <vehicle id="car.62" type="pc" depart="109.27" departLane="free" departSpeed="max">
        <route edges="0 1 2 3 4 5 6 7 8 9 10 11 12"/>
    </vehicle>
    <vehicle id="car.63" type="pc" depart="111.65" departLane="free" departSpeed="max">
        <route edges="0 1 2 3 4 5 6 7 8 9 10 11 12"/>
    </vehicle>
    <vehicle id="car.64" type="pc" depart="114.89" departLane="free" departSpeed="max">
        <route edges="0 1 2 3 4 5 6 7 8 9 10 11 12"/>
    </vehicle>
    <vehicle id="car.65" type="pc" depart="116.59" departLane="free" departSpeed="max">
        <route edges="0 1 2 3 4 5 6 7 8 9 10 11 12"/>
    </vehicle>
    <vehicle id="car.66" type="pc" depart="121.78" departLane="free" departSpeed="max">
        <route edges="0 1 2 3 4 5 6 7 8 9 10 11 12"/>
    </vehicle>
    <vehicle id="car.67" type="pc" depart="122.68" departLane="free" departSpeed="max">
        <route edges="0 1 2 3 4 5 6 7 8 9 10 11 12"/>
    </vehicle>
    <vehicle id="car.68" type="pc" depart="128.34" departLane="free" departSpeed="max">
        <route edges="0 1 2 3 4 5 6 7 8 9 10 11 12"/>
    </vehicle>
    <vehicle id="car.69" type="pc" depart="128.54" departLane="free" departSpeed="max">
        <route edges="0 1 2 3 4 5 6 7 8 9 10 11 12"/>
    </vehicle>
    <vehicle id="car.70" type="pc" depart="130.11" departLane="free" departSpeed="max">
        <route edges="0 1 2 3 4 5 6 7 8 9 10 11 12"/>
    </vehicle>
    <vehicle id="car.71" type="pc" depart="132.34" departLane="free" departSpeed="max">
        <route edges="0 1 2 3 4 5 6 7 8 9 10 11 12"/>
    </vehicle>
    <vehicle id="car.72" type="pc" depart="136.66" departLane="free" departSpeed="max">
        <route edges="0 1 2 3 4 5 6 7 8 9 10 11 12"/>
    </vehicle>
    <vehicle id="car.73" type="pc" depart="139.18" departLane="free" departSpeed="max">
        <route edges="0 1 2 3 4 5 6 7 8 9 10 11 12"/>
    </vehicle>
    <vehicle id="car.74" type="pc" depart="142.85" departLane="free" departSpeed="max">
        <route edges="0 1 2 3 4 5 6 7 8 9 10 11 12"/>
    </vehicle>
    <vehicle id="car.75" type="pc" depart="143.12" departLane="free" departSpeed="max">
        <route edges="0 1 2 3 4 5 6 7 8 9 10 11 12"/>
    </vehicle>
    <vehicle id="car.76" type="pc" depart="145.86" departLane="free" departSpeed="max">
        <route edges="0 1 2 3 4 5 6 7 8 9 10 11 12"/>
    </vehicle>
    <vehicle id="car.77" type="pc" depart="146.94" departLane="free" departSpeed="max">
        <route edges="0 1 2 3 4 5 6 7 8 9 10 11 12"/>
    </vehicle>
    <vehicle id="car.78" type="pc" depart="148.98" departLane="free" departSpeed="max">
        <route edges="0 1 2 3 4 5 6 7 8 9 10 11 12"/>
    </vehicle>
    <vehicle id="car.79" type="pc" depart="149.02" departLane="free" departSpeed="max">
        <route edges="0 1 2 3 4 5 6 7 8 9 10 11 12"/>
    </vehicle>
    <vehicle id="car.80" type="pc" depart="149.63" departLane="free" departSpeed="max">
        <route edges="0 1 2 3 4 5 6 7 8 9 10 11 12"/>
    </vehicle>
    <vehicle id="car.81" type="pc" depart="150.40" departLane="free" departSpeed="max">
        <route edges="0 1 2 3 4 5 6 7 8 9 10 11 12"/>
    </vehicle>
    <vehicle id="car.82" type="pc" depart="150.67" departLane="free" departSpeed="max">
        <route edges="0 1 2 3 4 5 6 7 8 9 10 11 12"/>
    </vehicle>
    <vehicle id="car.83" type="pc" depart="153.28" departLane="free" departSpeed="max">
        <route edges="0 1 2 3 4 5 6 7 8 9 10 11 12"/>
    </vehicle>
    <vehicle id="car.84" type="pc" depart="153.62" departLane="free" departSpeed="max">
        <route edges="0 1 2 3 4 5 6 7 8 9 10 11 12"/>
    </vehicle>
    <vehicle id="car.85" type="pc" depart="158.69" departLane="free" departSpeed="max">
        <route edges="0 1 2 3 4 5 6 7 8 9 10 11 12"/>
    </vehicle>
    <vehicle id="car.86" type="pc" depart="159.54" departLane="free" departSpeed="max">
        <route edges="0 1 2 3 4 5 6 7 8 9 10 11 12"/>
    </vehicle>
    <vehicle id="car.87" type="pc" depart="163.02" departLane="free" departSpeed="max">
        <route edges="0 1 2 3 4 5 6 7 8 9 10 11 12"/>
    </vehicle>
    <vehicle id="car.88" type="pc" depart="167.76" departLane="free" departSpeed="max">
        <route edges="0 1 2 3 4 5 6 7 8 9 10 11 12"/>
    </vehicle>
    <vehicle id="car.89" type="pc" depart="168.38" departLane="free" departSpeed="max">
        <route edges="0 1 2 3 4 5 6 7 8 9 10 11 12"/>
    </vehicle>
    <vehicle id="car.90" type="pc" depart="169.47" departLane="free" departSpeed="max">
        <route edges="0 1 2 3 4 5 6 7 8 9 10 11 12"/>
    </vehicle>
    <vehicle id="car.91" type="pc" depart="169.75" departLane="free" departSpeed="max">
        <route edges="0 1 2 3 4 5 6 7 8 9 10 11 12"/>
    </vehicle>
    <vehicle id="car.92" type="pc" depart="170.05" departLane="free" departSpeed="max">
        <route edges="0 1 2 3 4 5 6 7 8 9 10 11 12"/>
    </vehicle>
    <vehicle id="car.93" type="pc" depart="171.44" departLane="free" departSpeed="max">
        <route edges="0 1 2 3 4 5 6 7 8 9 10 11 12"/>
    </vehicle>
    <vehicle id="car.94" type="pc" depart="179.52" departLane="free" departSpeed="max">
        <route edges="0 1 2 3 4 5 6 7 8 9 10 11 12"/>
    </vehicle>
    <vehicle id="car.95" type="pc" depart="181.60" departLane="free" departSpeed="max">
        <route edges="0 1 2 3 4 5 6 7 8 9 10 11 12"/>
    </vehicle>
    <vehicle id="car.96" type="pc" depart="182.42" departLane="free" departSpeed="max">
        <route edges="0 1 2 3 4 5 6 7 8 9 10 11 12"/>
    </vehicle>
    <vehicle id="car.97" type="pc" depart="186.01" departLane="free" departSpeed="max">
        <route edges="0 1 2 3 4 5 6 7 8 9 10 11 12"/>
    </vehicle>
    <vehicle id="car.98" type="pc" depart="187.53" departLane="free" departSpeed="max">
        <route edges="0 1 2 3 4 5 6 7 8 9 10 11 12"/>
    </vehicle>
    <vehicle id="car.99" type="pc" depart="188.13" departLane="free" departSpeed="max">
        <route edges="0 1 2 3 4 5 6 7 8 9 10 11 12"/>
    </vehicle>
    <vehicle id="car.100" type="pc" depart="188.21" departLane="free" departSpeed="max">
        <route edges="0 1 2 3 4 5 6 7 8 9 10 11 12"/>
    </vehicle>
    <vehicle id="car.101" type="pc" depart="188.24" departLane="free" departSpeed="max">
        <route edges="0 1 2 3 4 5 6 7 8 9 10 11 12"/>
    </vehicle>
    <vehicle id="car.102" type="pc" depart="189.20" departLane="free" departSpeed="max">
        <route edges="0 1 2 3 4 5 6 7 8 9 10 11 12"/>
    </vehicle>
    <vehicle id="car.103" type="pc" depart="189.34" departLane="free" departSpeed="max">
        <route edges="0 1 2 3 4 5 6 7 8 9 10 11 12"/>
    </vehicle>
    <vehicle id="car.104" type="pc" depart="191.24" departLane="free" departSpeed="max">
        <route edges="0 1 2 3 4 5 6 7 8 9 10 11 12"/>
    </vehicle>
    <vehicle id="car.105" type="pc" depart="196.41" departLane="free" departSpeed="max">
        <route edges="0 1 2 3 4 5 6 7 8 9 10 11 12"/>
    </vehicle>
    <vehicle id="car.106" type="pc" depart="200.43" departLane="free" departSpeed="max">
        <route edges="0 1 2 3 4 5 6 7 8 9 10 11 12"/>
    </vehicle>
    <vehicle id="car.107" type="pc" depart="201.49" departLane="free" departSpeed="max">
        <route edges="0 1 2 3 4 5 6 7 8 9 10 11 12"/>
    </vehicle>
    <vehicle id="car.108" type="pc" depart="201.67" departLane="free" departSpeed="max">
        <route edges="0 1 2 3 4 5 6 7 8 9 10 11 12"/>
    </vehicle>
    <vehicle id="car.109" type="pc" depart="202.67" departLane="free" departSpeed="max">
        <route edges="0 1 2 3 4 5 6 7 8 9 10 11 12"/>
    </vehicle>
    <vehicle id="car.110" type="pc" depart="202.94" departLane="free" departSpeed="max">
        <route edges="0 1 2 3 4 5 6 7 8 9 10 11 12"/>
    </vehicle>
    <vehicle id="car.111" type="pc" depart="204.30" departLane="free" departSpeed="max">
        <route edges="0 1 2 3 4 5 6 7 8 9 10 11 12"/>
    </vehicle>
    <vehicle id="car.112" type="pc" depart="207.58" departLane="free" departSpeed="max">
        <route edges="0 1 2 3 4 5 6 7 8 9 10 11 12"/>
    </vehicle>
    <vehicle id="car.113" type="pc" depart="207.72" departLane="free" departSpeed="max">
        <route edges="0 1 2 3 4 5 6 7 8 9 10 11 12"/>
    </vehicle>
    <vehicle id="car.114" type="pc" depart="208.04" departLane="free" departSpeed="max">
        <route edges="0 1 2 3 4 5 6 7 8 9 10 11 12"/>
    </vehicle>
    <vehicle id="car.115" type="pc" depart="209.51" departLane="free" departSpeed="max">
        <route edges="0 1 2 3 4 5 6 7 8 9 10 11 12"/>
    </vehicle>
    <vehicle id="car.116" type="pc" depart="210.76" departLane="free" departSpeed="max">
        <route edges="0 1 2 3 4 5 6 7 8 9 10 11 12"/>
    </vehicle>
    <vehicle id="car.117" type="pc" depart="211.05" departLane="free" departSpeed="max">
        <route edges="0 1 2 3 4 5 6 7 8 9 10 11 12"/>
    </vehicle>
    <vehicle id="car.118" type="pc" depart="212.57" departLane="free" departSpeed="max">
        <route edges="0 1 2 3 4 5 6 7 8 9 10 11 12"/>
    </vehicle>
    <vehicle id="car.119" type="pc" depart="214.16" departLane="free" departSpeed="max">
        <route edges="0 1 2 3 4 5 6 7 8 9 10 11 12"/>
    </vehicle>
    <vehicle id="car.120" type="pc" depart="215.86" departLane="free" departSpeed="max">
        <route edges="0 1 2 3 4 5 6 7 8 9 10 11 12"/>
    </vehicle>
    <vehicle id="car.121" type="pc" depart="217.98" departLane="free" departSpeed="max">
        <route edges="0 1 2 3 4 5 6 7 8 9 10 11 12"/>
    </vehicle>
    <vehicle id="car.122" type="pc" depart="220.26" departLane="free" departSpeed="max">
        <route edges="0 1 2 3 4 5 6 7 8 9 10 11 12"/>
    </vehicle>
    <vehicle id="car.123" type="pc" depart="220.65" departLane="free" departSpeed="max">
        <route edges="0 1 2 3 4 5 6 7 8 9 10 11 12"/>
    </vehicle>
    <vehicle id="car.124" type="pc" depart="222.36" departLane="free" departSpeed="max">
        <route edges="0 1 2 3 4 5 6 7 8 9 10 11 12"/>
    </vehicle>
    <vehicle id="car.125" type="pc" depart="222.41" departLane="free" departSpeed="max">
        <route edges="0 1 2 3 4 5 6 7 8 9 10 11 12"/>
    </vehicle>
    <vehicle id="car.126" type="pc" depart="222.49" departLane="free" departSpeed="max">
        <route edges="0 1 2 3 4 5 6 7 8 9 10 11 12"/>
    </vehicle>
    <vehicle id="car.127" type="pc" depart="224.07" departLane="free" departSpeed="max">
        <route edges="0 1 2 3 4 5 6 7 8 9 10 11 12"/>
    </vehicle>
    <vehicle id="car.128" type="pc" depart="225.98" departLane="free" departSpeed="max">
        <route edges="0 1 2 3 4 5 6 7 8 9 10 11 12"/>
    </vehicle>
    <vehicle id="car.129" type="pc" depart="229.60" departLane="free" departSpeed="max">
        <route edges="0 1 2 3 4 5 6 7 8 9 10 11 12"/>
    </vehicle>
    <vehicle id="car.130" type="pc" depart="235.68" departLane="free" departSpeed="max">
        <route edges="0 1 2 3 4 5 6 7 8 9 10 11 12"/>
    </vehicle>
    <vehicle id="car.131" type="pc" depart="238.38" departLane="free" departSpeed="max">
        <route edges="0 1 2 3 4 5 6 7 8 9 10 11 12"/>
    </vehicle>
    <vehicle id="car.132" type="pc" depart="240.76" departLane="free" departSpeed="max">
        <route edges="0 1 2 3 4 5 6 7 8 9 10 11 12"/>
    </vehicle>
    <vehicle id="car.133" type="pc" depart="240.79" departLane="free" departSpeed="max">
        <route edges="0 1 2 3 4 5 6 7 8 9 10 11 12"/>
    </vehicle>
    <vehicle id="car.134" type="pc" depart="241.82" departLane="free" departSpeed="max">
        <route edges="0 1 2 3 4 5 6 7 8 9 10 11 12"/>
    </vehicle>
    <vehicle id="car.135" type="pc" depart="242.93" departLane="free" departSpeed="max">
        <route edges="0 1 2 3 4 5 6 7 8 9 10 11 12"/>
    </vehicle>
    <vehicle id="car.136" type="pc" depart="243.94" departLane="free" departSpeed="max">
        <route edges="0 1 2 3 4 5 6 7 8 9 10 11 12"/>
    </vehicle>
    <vehicle id="car.137" type="pc" depart="244.16" departLane="free" departSpeed="max">
        <route edges="0 1 2 3 4 5 6 7 8 9 10 11 12"/>
    </vehicle>
    <vehicle id="car.138" type="pc" depart="245.75" departLane="free" departSpeed="max">
        <route edges="0 1 2 3 4 5 6 7 8 9 10 11 12"/>
    </vehicle>
    <vehicle id="car.139" type="pc" depart="245.88" departLane="free" departSpeed="max">
        <route edges="0 1 2 3 4 5 6 7 8 9 10 11 12"/>
    </vehicle>
    <vehicle id="car.140" type="pc" depart="254.09" departLane="free" departSpeed="max">
        <route edges="0 1 2 3 4 5 6 7 8 9 10 11 12"/>
    </vehicle>
    <vehicle id="car.141" type="pc" depart="260.97" departLane="free" departSpeed="max">
        <route edges="0 1 2 3 4 5 6 7 8 9 10 11 12"/>
    </vehicle>
    <vehicle id="car.142" type="pc" depart="262.38" departLane="free" departSpeed="max">
        <route edges="0 1 2 3 4 5 6 7 8 9 10 11 12"/>
    </vehicle>
    <vehicle id="car.143" type="pc" depart="265.28" departLane="free" departSpeed="max">
        <route edges="0 1 2 3 4 5 6 7 8 9 10 11 12"/>
    </vehicle>
    <vehicle id="car.144" type="pc" depart="265.77" departLane="free" departSpeed="max">
        <route edges="0 1 2 3 4 5 6 7 8 9 10 11 12"/>
    </vehicle>
    <vehicle id="car.145" type="pc" depart="266.05" departLane="free" departSpeed="max">
        <route edges="0 1 2 3 4 5 6 7 8 9 10 11 12"/>
    </vehicle>
    <vehicle id="car.146" type="pc" depart="269.15" departLane="free" departSpeed="max">
        <route edges="0 1 2 3 4 5 6 7 8 9 10 11 12"/>
    </vehicle>
    <vehicle id="car.147" type="pc" depart="272.92" departLane="free" departSpeed="max">
        <route edges="0 1 2 3 4 5 6 7 8 9 10 11 12"/>
    </vehicle>
    <vehicle id="car.148" type="pc" depart="276.27" departLane="free" departSpeed="max">
        <route edges="0 1 2 3 4 5 6 7 8 9 10 11 12"/>
    </vehicle>
    <vehicle id="car.149" type="pc" depart="278.44" departLane="free" departSpeed="max">
        <route edges="0 1 2 3 4 5 6 7 8 9 10 11 12"/>
    </vehicle>
    <vehicle id="car.150" type="pc" depart="278.64" departLane="free" departSpeed="max">
        <route edges="0 1 2 3 4 5 6 7 8 9 10 11 12"/>
    </vehicle>
    <vehicle id="car.151" type="pc" depart="280.53" departLane="free" departSpeed="max">
        <route edges="0 1 2 3 4 5 6 7 8 9 10 11 12"/>
    </vehicle>
    <vehicle id="car.152" type="pc" depart="282.70" departLane="free" departSpeed="max">
        <route edges="0 1 2 3 4 5 6 7 8 9 10 11 12"/>
    </vehicle>
    <vehicle id="car.153" type="pc" depart="284.18" departLane="free" departSpeed="max">
        <route edges="0 1 2 3 4 5 6 7 8 9 10 11 12"/>
    </vehicle>
    <vehicle id="car.154" type="pc" depart="289.45" departLane="free" departSpeed="max">
        <route edges="0 1 2 3 4 5 6 7 8 9 10 11 12"/>
    </vehicle>
    <vehicle id="car.155" type="pc" depart="292.21" departLane="free" departSpeed="max">
        <route edges="0 1 2 3 4 5 6 7 8 9 10 11 12"/>
    </vehicle>
    <vehicle id="car.156" type="pc" depart="292.32" departLane="free" departSpeed="max">
        <route edges="0 1 2 3 4 5 6 7 8 9 10 11 12"/>
    </vehicle>
    <vehicle id="car.157" type="pc" depart="294.01" departLane="free" departSpeed="max">
        <route edges="0 1 2 3 4 5 6 7 8 9 10 11 12"/>
    </vehicle>
    <vehicle id="car.158" type="pc" depart="300.47" departLane="free" departSpeed="max">
        <route edges="0 1 2 3 4 5 6 7 8 9 10 11 12"/>
    </vehicle>
    <vehicle id="car.159" type="pc" depart="302.92" departLane="free" departSpeed="max">
        <route edges="0 1 2 3 4 5 6 7 8 9 10 11 12"/>
    </vehicle>
    <vehicle id="car.160" type="pc" depart="302.97" departLane="free" departSpeed="max">
        <route edges="0 1 2 3 4 5 6 7 8 9 10 11 12"/>
    </vehicle>
    <vehicle id="car.161" type="pc" depart="305.15" departLane="free" departSpeed="max">
        <route edges="0 1 2 3 4 5 6 7 8 9 10 11 12"/>
    </vehicle>
    <vehicle id="car.162" type="pc" depart="306.36" departLane="free" departSpeed="max">
        <route edges="0 1 2 3 4 5 6 7 8 9 10 11 12"/>
    </vehicle>
    <vehicle id="car.163" type="pc" depart="307.23" departLane="free" departSpeed="max">
        <route edges="0 1 2 3 4 5 6 7 8 9 10 11 12"/>
    </vehicle>
    <vehicle id="car.164" type="pc" depart="309.17" departLane="free" departSpeed="max">
        <route edges="0 1 2 3 4 5 6 7 8 9 10 11 12"/>
    </vehicle>
    <vehicle id="car.165" type="pc" depart="311.58" departLane="free" departSpeed="max">
        <route edges="0 1 2 3 4 5 6 7 8 9 10 11 12"/>
    </vehicle>
    <vehicle id="car.166" type="pc" depart="312.63" departLane="free" departSpeed="max">
        <route edges="0 1 2 3 4 5 6 7 8 9 10 11 12"/>
    </vehicle>
    <vehicle id="car.167" type="pc" depart="312.98" departLane="free" departSpeed="max">
        <route edges="0 1 2 3 4 5 6 7 8 9 10 11 12"/>
    </vehicle>
    <vehicle id="car.168" type="pc" depart="312.99" departLane="free" departSpeed="max">
        <route edges="0 1 2 3 4 5 6 7 8 9 10 11 12"/>
    </vehicle>
    <vehicle id="car.169" type="pc" depart="313.31" departLane="free" departSpeed="max">
        <route edges="0 1 2 3 4 5 6 7 8 9 10 11 12"/>
    </vehicle>
    <vehicle id="car.170" type="pc" depart="314.38" departLane="free" departSpeed="max">
        <route edges="0 1 2 3 4 5 6 7 8 9 10 11 12"/>
    </vehicle>
    <vehicle id="car.171" type="pc" depart="315.21" departLane="free" departSpeed="max">
        <route edges="0 1 2 3 4 5 6 7 8 9 10 11 12"/>
    </vehicle>
    <vehicle id="car.172" type="pc" depart="315.31" departLane="free" departSpeed="max">
        <route edges="0 1 2 3 4 5 6 7 8 9 10 11 12"/>
    </vehicle>
    <vehicle id="car.173" type="pc" depart="319.61" departLane="free" departSpeed="max">
        <route edges="0 1 2 3 4 5 6 7 8 9 10 11 12"/>
    </vehicle>
    <vehicle id="car.174" type="pc" depart="320.66" departLane="free" departSpeed="max">
        <route edges="0 1 2 3 4 5 6 7 8 9 10 11 12"/>
    </vehicle>
    <vehicle id="car.175" type="pc" depart="321.07" departLane="free" departSpeed="max">
        <route edges="0 1 2 3 4 5 6 7 8 9 10 11 12"/>
    </vehicle>
    <vehicle id="car.176" type="pc" depart="322.82" departLane="free" departSpeed="max">
        <route edges="0 1 2 3 4 5 6 7 8 9 10 11 12"/>
    </vehicle>
    <vehicle id="car.177" type="pc" depart="325.69" departLane="free" departSpeed="max">
        <route edges="0 1 2 3 4 5 6 7 8 9 10 11 12"/>
    </vehicle>
    <vehicle id="car.178" type="pc" depart="326.27" departLane="free" departSpeed="max">
        <route edges="0 1 2 3 4 5 6 7 8 9 10 11 12"/>
    </vehicle>
    <vehicle id="car.179" type="pc" depart="327.86" departLane="free" departSpeed="max">
        <route edges="0 1 2 3 4 5 6 7 8 9 10 11 12"/>
    </vehicle>
    <vehicle id="car.180" type="pc" depart="331.23" departLane="free" departSpeed="max">
        <route edges="0 1 2 3 4 5 6 7 8 9 10 11 12"/>
    </vehicle>
    <vehicle id="car.181" type="pc" depart="335.03" departLane="free" departSpeed="max">
        <route edges="0 1 2 3 4 5 6 7 8 9 10 11 12"/>
    </vehicle>
    <vehicle id="car.182" type="pc" depart="337.63" departLane="free" departSpeed="max">
        <route edges="0 1 2 3 4 5 6 7 8 9 10 11 12"/>
    </vehicle>
    <vehicle id="car.183" type="pc" depart="339.76" departLane="free" departSpeed="max">
        <route edges="0 1 2 3 4 5 6 7 8 9 10 11 12"/>
    </vehicle>
    <vehicle id="car.184" type="pc" depart="340.73" departLane="free" departSpeed="max">
        <route edges="0 1 2 3 4 5 6 7 8 9 10 11 12"/>
    </vehicle>