<?xml version="1.0" encoding="UTF-8"?>

<!-- generated on Sun Apr  8 21:35:36 2018 by Netedit Version 0.30.0
<?xml version="1.0" encoding="UTF-8"?>

<configuration xmlns:xsi="http://www.w3.org/2001/XMLSchema-instance" xsi:noNamespaceSchemaLocation="http://sumo.dlr.de/xsd/netconvertConfiguration.xsd">

    <input>
        <sumo-net-file value="smartcone.net.xml"/>
    </input>

    <output>
        <output-file value="smartcone.net.xml"/>
    </output>

    <processing>
        <no-turnarounds value="true"/>
        <offset.disable-normalization value="true"/>
        <lefthand value="false"/>
        <junctions.corner-detail value="0"/>
        <rectangular-lane-cut value="false"/>
    </processing>

</configuration>
-->

<net version="0.27" xmlns:xsi="http://www.w3.org/2001/XMLSchema-instance" xsi:noNamespaceSchemaLocation="http://sumo.dlr.de/xsd/net_file.xsd">

    <location netOffset="7296.03,2.27" convBoundary="0.00,0.00,9656.04,4.26" origBoundary="-7296.03,-2.27,750.46,1.91" projParameter="!"/>

    <edge id=":10_0" function="internal">
        <lane id=":10_0_0" index="0" speed="31.29" length="0.50" shape="7242.53,0.60 7243.03,0.60"/>
        <lane id=":10_0_1" index="1" speed="31.29" length="0.50" shape="7242.53,3.90 7243.03,3.90"/>
    </edge>
    <edge id=":11_0" function="internal">
        <lane id=":11_0_0" index="0" speed="31.29" length="0.50" shape="8047.20,0.60 8047.70,0.60"/>
        <lane id=":11_0_1" index="1" speed="31.29" length="0.50" shape="8047.20,3.90 8047.70,3.90"/>
    </edge>
    <edge id=":12_0" function="internal">
        <lane id=":12_0_0" index="0" speed="24.59" length="3.03" shape="8851.31,3.90 8852.20,3.96 8852.81,4.08 8853.42,4.20 8854.31,4.26"/>
    </edge>
    <edge id=":13_0" function="internal">
        <lane id=":13_0_0" index="0" speed="24.59" length="3.88" shape="9180.30,4.22 9183.30,0.56"/>
        <lane id=":13_0_1" index="1" speed="24.59" length="3.88" shape="9180.30,4.22 9181.20,4.17 9181.80,4.04 9182.41,3.92 9183.30,3.86"/>
    </edge>
    <edge id=":2_0" function="internal">
        <lane id=":2_0_0" index="0" speed="31.29" length="1.00" shape="804.68,0.59 805.68,0.59"/>
        <lane id=":2_0_1" index="1" speed="31.29" length="1.00" shape="804.68,3.89 805.68,3.89"/>
    </edge>
    <edge id=":3_0" function="internal">
        <lane id=":3_0_0" index="0" speed="31.29" length="0.50" shape="1609.84,0.60 1610.34,0.60"/>
        <lane id=":3_0_1" index="1" speed="31.29" length="0.50" shape="1609.84,3.90 1610.34,3.90"/>
    </edge>
    <edge id=":4_0" function="internal">
        <lane id=":4_0_0" index="0" speed="31.29" length="0.50" shape="2414.51,0.60 2415.01,0.60"/>
        <lane id=":4_0_1" index="1" speed="31.29" length="0.50" shape="2414.51,3.90 2415.01,3.90"/>
    </edge>
    <edge id=":5_0" function="internal">
        <lane id=":5_0_0" index="0" speed="31.29" length="0.50" shape="3219.18,0.60 3219.68,0.60"/>
        <lane id=":5_0_1" index="1" speed="31.29" length="0.50" shape="3219.18,3.90 3219.68,3.90"/>
    </edge>
    <edge id=":6_0" function="internal">
        <lane id=":6_0_0" index="0" speed="31.29" length="0.50" shape="4023.85,0.60 4024.35,0.60"/>
        <lane id=":6_0_1" index="1" speed="31.29" length="0.50" shape="4023.85,3.90 4024.35,3.90"/>
    </edge>
    <edge id=":7_0" function="internal">
        <lane id=":7_0_0" index="0" speed="31.29" length="0.50" shape="4828.52,0.60 4829.02,0.60"/>
        <lane id=":7_0_1" index="1" speed="31.29" length="0.50" shape="4828.52,3.90 4829.02,3.90"/>
    </edge>
    <edge id=":8_0" function="internal">
        <lane id=":8_0_0" index="0" speed="31.29" length="0.50" shape="5633.19,0.60 5633.69,0.60"/>
        <lane id=":8_0_1" index="1" speed="31.29" length="0.50" shape="5633.19,3.90 5633.69,3.90"/>
    </edge>
    <edge id=":9_0" function="internal">
        <lane id=":9_0_0" index="0" speed="31.29" length="0.50" shape="6437.86,0.60 6438.36,0.60"/>
        <lane id=":9_0_1" index="1" speed="31.29" length="0.50" shape="6437.86,3.90 6438.36,3.90"/>
    </edge>

    <edge id="0" from="1-begin" to="2" priority="-1" type="1" spreadType="center" length="804.67" shape="1.01,2.25 804.68,2.24">
        <lane id="0_0" index="0" speed="31.29" length="804.67" shape="-0.00,0.60 804.68,0.59"/>
        <lane id="0_1" index="1" speed="31.29" length="804.67" shape="0.00,3.90 804.68,3.89"/>
    </edge>
    <edge id="1" from="2" to="3" priority="-1" type="1" spreadType="center" length="804.67" shape="805.68,2.24 1609.34,2.25">
        <lane id="1_0" index="0" speed="31.29" length="804.67" shape="805.68,0.59 1609.84,0.60"/>
        <lane id="1_1" index="1" speed="31.29" length="804.67" shape="805.68,3.89 1609.84,3.90"/>
    </edge>
    <edge id="10" from="11" to="12" priority="-1" type="1" spreadType="center" length="804.67" shape="8047.70,2.25 8852.31,2.25">
        <lane id="10_0" index="0" speed="31.29" length="804.67" shape="8047.70,0.60 8851.31,0.60"/>
        <lane id="10_1" index="1" speed="31.29" length="804.67" shape="8047.70,3.90 8851.31,3.90"/>
    </edge>
    <edge id="11" from="12" to="13" priority="-1" type="1" spreadType="center" shape="8853.31,4.26 9181.30,4.22">
        <lane id="11_0" index="0" speed="17.88" length="325.99" shape="8854.31,4.26 9180.30,4.22"/>
    </edge>
    <edge id="12" from="13" to="14-end" priority="-1" type="1" spreadType="center" shape="9182.30,2.21 9656.04,2.25">
        <lane id="12_0" index="0" speed="31.29" length="472.74" shape="9183.30,0.56 9656.04,0.60"/>
        <lane id="12_1" index="1" speed="31.29" length="472.74" shape="9183.30,3.86 9656.04,3.90"/>
    </edge>
    <edge id="2" from="3" to="4" priority="-1" type="1" spreadType="center" length="804.67" shape="1610.34,2.25 2414.01,2.25">
        <lane id="2_0" index="0" speed="31.29" length="804.67" shape="1610.34,0.60 2414.51,0.60"/>
        <lane id="2_1" index="1" speed="31.29" length="804.67" shape="1610.34,3.90 2414.51,3.90"/>
    </edge>
    <edge id="3" from="4" to="5" priority="-1" type="1" spreadType="center" length="804.67" shape="2415.01,2.25 3218.68,2.25">
        <lane id="3_0" index="0" speed="31.29" length="804.67" shape="2415.01,0.60 3219.18,0.60"/>
        <lane id="3_1" index="1" speed="31.29" length="804.67" shape="2415.01,3.90 3219.18,3.90"/>
    </edge>
    <edge id="35" from="35-SourceNode" to="35-DestinationNode" priority="-1" type="1" spreadType="center">
        <lane id="35_0" index="0" speed="13.89" length="309.37" shape="8860.37,0.00 9169.74,0.00"/>
    </edge>
    <edge id="4" from="5" to="6" priority="-1" type="1" spreadType="center" length="804.67" shape="3219.68,2.25 4023.35,2.25">
        <lane id="4_0" index="0" speed="31.29" length="804.67" shape="3219.68,0.60 4023.85,0.60"/>
        <lane id="4_1" index="1" speed="31.29" length="804.67" shape="3219.68,3.90 4023.85,3.90"/>
    </edge>
    <edge id="5" from="6" to="7" priority="-1" type="1" spreadType="center" length="804.67" shape="4024.35,2.25 4828.02,2.25">
        <lane id="5_0" index="0" speed="31.29" length="804.67" shape="4024.35,0.60 4828.52,0.60"/>
        <lane id="5_1" index="1" speed="31.29" length="804.67" shape="4024.35,3.90 4828.52,3.90"/>
    </edge>
    <edge id="6" from="7" to="8" priority="-1" type="1" spreadType="center" length="804.67" shape="4829.02,2.25 5632.69,2.25">
        <lane id="6_0" index="0" speed="31.29" length="804.67" shape="4829.02,0.60 5633.19,0.60"/>
        <lane id="6_1" index="1" speed="31.29" length="804.67" shape="4829.02,3.90 5633.19,3.90"/>
    </edge>
    <edge id="7" from="8" to="9" priority="-1" type="1" spreadType="center" length="804.67" shape="5633.69,2.25 6437.36,2.25">
        <lane id="7_0" index="0" speed="31.29" length="804.67" shape="5633.69,0.60 6437.86,0.60"/>
        <lane id="7_1" index="1" speed="31.29" length="804.67" shape="5633.69,3.90 6437.86,3.90"/>
    </edge>
    <edge id="8" from="9" to="10" priority="-1" type="1" spreadType="center" length="804.67" shape="6438.36,2.25 7242.03,2.25">
        <lane id="8_0" index="0" speed="31.29" length="804.67" shape="6438.36,0.60 7242.53,0.60"/>
        <lane id="8_1" index="1" speed="31.29" length="804.67" shape="6438.36,3.90 7242.53,3.90"/>
    </edge>
    <edge id="9" from="10" to="11" priority="-1" type="1" spreadType="center" length="804.67" shape="7243.03,2.25 8046.70,2.25">
        <lane id="9_0" index="0" speed="31.29" length="804.67" shape="7243.03,0.60 8047.20,0.60"/>
        <lane id="9_1" index="1" speed="31.29" length="804.67" shape="7243.03,3.90 8047.20,3.90"/>
    </edge>

    <junction id="1-begin" type="dead_end" x="0.00" y="2.25" incLanes="" intLanes="" shape="0.00,5.50 -0.00,-1.00"/>
    <junction id="10" type="priority" x="7242.03" y="2.25" incLanes="8_0 8_1" intLanes=":10_0_0 :10_0_1" shape="7243.03,5.50 7243.03,-1.00 7242.53,-1.00 7242.53,5.50">
        <request index="0" response="00" foes="00" cont="0"/>
        <request index="1" response="00" foes="00" cont="0"/>
    </junction>
    <junction id="11" type="priority" x="8046.70" y="2.25" incLanes="9_0 9_1" intLanes=":11_0_0 :11_0_1" shape="8047.70,5.50 8047.70,-1.00 8047.20,-1.00 8047.20,5.50">
        <request index="0" response="00" foes="00" cont="0"/>
        <request index="1" response="00" foes="00" cont="0"/>
    </junction>
    <junction id="12" type="priority" x="8851.37" y="2.25" incLanes="10_0 10_1" intLanes=":12_0_0" shape="8854.31,5.86 8854.31,2.66 8851.31,-1.00 8851.31,5.50">
        <request index="0" response="0" foes="0" cont="0"/>
    </junction>
    <junction id="13" type="priority" x="9179.93" y="4.22" incLanes="11_0" intLanes=":13_0_0 :13_0_1" shape="9183.30,5.46 9183.30,-1.04 9180.30,2.62 9180.30,5.82">
        <request index="0" response="00" foes="00" cont="0"/>
        <request index="1" response="00" foes="00" cont="0"/>
    </junction>
    <junction id="14-end" type="dead_end" x="9656.04" y="2.25" incLanes="12_0 12_1" intLanes="" shape="9656.04,-1.00 9656.04,5.50"/>
    <junction id="2" type="priority" x="804.67" y="2.24" incLanes="0_0 0_1" intLanes=":2_0_0 :2_0_1" shape="805.68,5.49 805.68,-1.01 804.68,-1.01 804.68,5.49">
        <request index="0" response="00" foes="00" cont="0"/>
        <request index="1" response="00" foes="00" cont="0"/>
    </junction>
    <junction id="3" type="priority" x="1609.34" y="2.25" incLanes="1_0 1_1" intLanes=":3_0_0 :3_0_1" shape="1610.34,5.50 1610.34,-1.00 1609.84,-1.00 1609.84,5.50">
        <request index="0" response="00" foes="00" cont="0"/>
        <request index="1" response="00" foes="00" cont="0"/>
    </junction>
    <junction id="35-DestinationNode" type="dead_end" x="9169.74" y="0.00" incLanes="35_0" intLanes="" shape="9169.74,-1.60 9169.74,1.60"/>
    <junction id="35-SourceNode" type="dead_end" x="8860.37" y="0.00" incLanes="" intLanes="" shape="8860.37,1.60 8860.37,-1.60"/>
    <junction id="4" type="priority" x="2414.01" y="2.25" incLanes="2_0 2_1" intLanes=":4_0_0 :4_0_1" shape="2415.01,5.50 2415.01,-1.00 2414.51,-1.00 2414.51,5.50">
        <request index="0" response="00" foes="00" cont="0"/>
        <request index="1" response="00" foes="00" cont="0"/>
    </junction>
    <junction id="5" type="priority" x="3218.68" y="2.25" incLanes="3_0 3_1" intLanes=":5_0_0 :5_0_1" shape="3219.68,5.50 3219.68,-1.00 3219.18,-1.00 3219.18,5.50">
        <request index="0" response="00" foes="00" cont="0"/>
        <request index="1" response="00" foes="00" cont="0"/>
    </junction>
    <junction id="6" type="priority" x="4023.35" y="2.25" incLanes="4_0 4_1" intLanes=":6_0_0 :6_0_1" shape="4024.35,5.50 4024.35,-1.00 4023.85,-1.00 4023.85,5.50">
        <request index="0" response="00" foes="00" cont="0"/>
        <request index="1" response="00" foes="00" cont="0"/>
    </junction>
    <junction id="7" type="priority" x="4828.02" y="2.25" incLanes="5_0 5_1" intLanes=":7_0_0 :7_0_1" shape="4829.02,5.50 4829.02,-1.00 4828.52,-1.00 4828.52,5.50">
        <request index="0" response="00" foes="00" cont="0"/>
        <request index="1" response="00" foes="00" cont="0"/>
    </junction>
    <junction id="8" type="priority" x="5632.69" y="2.25" incLanes="6_0 6_1" intLanes=":8_0_0 :8_0_1" shape="5633.69,5.50 5633.69,-1.00 5633.19,-1.00 5633.19,5.50">
        <request index="0" response="00" foes="00" cont="0"/>
        <request index="1" response="00" foes="00" cont="0"/>
    </junction>
    <junction id="9" type="priority" x="6437.36" y="2.25" incLanes="7_0 7_1" intLanes=":9_0_0 :9_0_1" shape="6438.36,5.50 6438.36,-1.00 6437.86,-1.00 6437.86,5.50">
        <request index="0" response="00" foes="00" cont="0"/>
        <request index="1" response="00" foes="00" cont="0"/>
    </junction>

    <connection from="0" to="1" fromLane="0" toLane="0" via=":2_0_0" dir="s" state="M"/>
    <connection from="0" to="1" fromLane="1" toLane="1" via=":2_0_1" dir="s" state="M"/>
    <connection from="1" to="2" fromLane="0" toLane="0" via=":3_0_0" dir="s" state="M"/>
    <connection from="1" to="2" fromLane="1" toLane="1" via=":3_0_1" dir="s" state="M"/>
    <connection from="10" to="11" fromLane="1" toLane="0" via=":12_0_0" dir="s" state="M"/>
    <connection from="11" to="12" fromLane="0" toLane="0" via=":13_0_0" dir="s" state="M"/>
    <connection from="11" to="12" fromLane="0" toLane="1" via=":13_0_1" dir="s" state="M"/>
    <connection from="2" to="3" fromLane="0" toLane="0" via=":4_0_0" dir="s" state="M"/>
    <connection from="2" to="3" fromLane="1" toLane="1" via=":4_0_1" dir="s" state="M"/>
    <connection from="3" to="4" fromLane="0" toLane="0" via=":5_0_0" dir="s" state="M"/>
    <connection from="3" to="4" fromLane="1" toLane="1" via=":5_0_1" dir="s" state="M"/>
    <connection from="4" to="5" fromLane="0" toLane="0" via=":6_0_0" dir="s" state="M"/>
    <connection from="4" to="5" fromLane="1" toLane="1" via=":6_0_1" dir="s" state="M"/>
    <connection from="5" to="6" fromLane="0" toLane="0" via=":7_0_0" dir="s" state="M"/>
    <connection from="5" to="6" fromLane="1" toLane="1" via=":7_0_1" dir="s" state="M"/>
    <connection from="6" to="7" fromLane="0" toLane="0" via=":8_0_0" dir="s" state="M"/>
    <connection from="6" to="7" fromLane="1" toLane="1" via=":8_0_1" dir="s" state="M"/>
    <connection from="7" to="8" fromLane="0" toLane="0" via=":9_0_0" dir="s" state="M"/>
    <connection from="7" to="8" fromLane="1" toLane="1" via=":9_0_1" dir="s" state="M"/>
    <connection from="8" to="9" fromLane="0" toLane="0" via=":10_0_0" dir="s" state="M"/>
    <connection from="8" to="9" fromLane="1" toLane="1" via=":10_0_1" dir="s" state="M"/>
    <connection from="9" to="10" fromLane="0" toLane="0" via=":11_0_0" dir="s" state="M"/>
    <connection from="9" to="10" fromLane="1" toLane="1" via=":11_0_1" dir="s" state="M"/>

    <connection from=":10_0" to="9" fromLane="0" toLane="0" dir="s" state="M"/>
    <connection from=":10_0" to="9" fromLane="1" toLane="1" dir="s" state="M"/>
    <connection from=":11_0" to="10" fromLane="0" toLane="0" dir="s" state="M"/>
    <connection from=":11_0" to="10" fromLane="1" toLane="1" dir="s" state="M"/>
    <connection from=":12_0" to="11" fromLane="0" toLane="0" dir="s" state="M"/>
    <connection from=":13_0" to="12" fromLane="0" toLane="0" dir="s" state="M"/>
    <connection from=":13_0" to="12" fromLane="1" toLane="1" dir="s" state="M"/>
    <connection from=":2_0" to="1" fromLane="0" toLane="0" dir="s" state="M"/>
    <connection from=":2_0" to="1" fromLane="1" toLane="1" dir="s" state="M"/>
    <connection from=":3_0" to="2" fromLane="0" toLane="0" dir="s" state="M"/>
    <connection from=":3_0" to="2" fromLane="1" toLane="1" dir="s" state="M"/>
    <connection from=":4_0" to="3" fromLane="0" toLane="0" dir="s" state="M"/>
    <connection from=":4_0" to="3" fromLane="1" toLane="1" dir="s" state="M"/>
    <connection from=":5_0" to="4" fromLane="0" toLane="0" dir="s" state="M"/>
    <connection from=":5_0" to="4" fromLane="1" toLane="1" dir="s" state="M"/>
    <connection from=":6_0" to="5" fromLane="0" toLane="0" dir="s" state="M"/>
    <connection from=":6_0" to="5" fromLane="1" toLane="1" dir="s" state="M"/>
    <connection from=":7_0" to="6" fromLane="0" toLane="0" dir="s" state="M"/>
    <connection from=":7_0" to="6" fromLane="1" toLane="1" dir="s" state="M"/>
    <connection from=":8_0" to="7" fromLane="0" toLane="0" dir="s" state="M"/>
    <connection from=":8_0" to="7" fromLane="1" toLane="1" dir="s" state="M"/>
    <connection from=":9_0" to="8" fromLane="0" toLane="0" dir="s" state="M"/>
    <connection from=":9_0" to="8" fromLane="1" toLane="1" dir="s" state="M"/>

</net>
