<routes>
    <vType id="normal car" vClass="passenger" maxSpeed="40" speedFactor="1.0" speedDev="0.2" sigma="0.5" />
    <flow id="lane0" type="normal car" begin="0" end="4000" vehsPerHour="2000" from="0" to="12" departLane="free" departSpeed="max" />
    <flow id="lane1" type="normal car" begin="0" end="4000" vehsPerHour="2000" from="0" to="12" departLane="free" departSpeed="max" />
</routes>